<routes>
    <vType id="car" accel="2.6" decel="4.5" sigma="0.5" length="5" minGap="2.5" maxSpeed="13.89" guiShape="passenger"/>
    <route id="r1" edges="f_k k_a a_b b_c c_i i_j j_h"/>
    <route id="r2" edges="d_f f_m m_b b_n n_g g_e e_i"/>
    
    <vehicle id="veh0" type="car" route="r1" depart="0"/>
    <vehicle id="veh1" type="car" route="r2" depart="2"/>
    <vehicle id="veh2" type="car" route="r1" depart="4"/>
    <vehicle id="veh3" type="car" route="r2" depart="6"/>
    <vehicle id="veh4" type="car" route="r1" depart="8"/>
    <vehicle id="veh5" type="car" route="r2" depart="10"/>
    <vehicle id="veh6" type="car" route="r1" depart="12"/>
    <vehicle id="veh7" type="car" route="r2" depart="14"/>
    <vehicle id="veh8" type="car" route="r1" depart="16"/>
    <vehicle id="veh9" type="car" route="r2" depart="18"/>
</routes>
