<?xml version="1.0" encoding="UTF-8"?>

<!-- generated on 2026-02-14T10:21:51.434783+05:30 by Eclipse SUMO netconvert 1.26.0
<netconvertConfiguration xmlns:xsi="http://www.w3.org/2001/XMLSchema-instance" xsi:noNamespaceSchemaLocation="http://sumo.dlr.de/xsd/netconvertConfiguration.xsd">

    <input>
        <node-files value="road.nod.xml"/>
        <edge-files value="road.edg.xml"/>
    </input>

    <output>
        <output-file value="road.net.xml"/>
    </output>

</netconvertConfiguration>
-->

<net version="1.20" junctionCornerDetail="5" limitTurnSpeed="5.50" xmlns:xsi="http://www.w3.org/2001/XMLSchema-instance" xsi:noNamespaceSchemaLocation="http://sumo.dlr.de/xsd/net_file.xsd">

    <location netOffset="-50.00,-50.00" convBoundary="0.00,0.00,600.00,350.00" origBoundary="50.00,50.00,650.00,400.00" projParameter="!"/>

    <edge id=":a_0" function="internal">
        <lane id=":a_0_0" index="0" speed="5.46" length="10.02" shape="51.52,62.66 50.40,59.59 49.07,58.46 47.53,59.28 45.77,62.03"/>
    </edge>
    <edge id=":a_1" function="internal">
        <lane id=":a_1_0" index="0" speed="8.42" length="18.81" shape="51.52,62.66 50.59,56.42 51.38,51.97 53.88,49.29 58.10,48.40"/>
    </edge>
    <edge id=":a_2" function="internal">
        <lane id=":a_2_0" index="0" speed="3.65" length="4.67" shape="51.52,62.66 52.00,61.30 52.68,60.72 53.55,60.91 54.62,61.88"/>
    </edge>
    <edge id=":a_3" function="internal">
        <lane id=":a_3_0" index="0" speed="7.04" length="12.75" shape="58.10,51.60 55.61,52.24 54.20,54.17 53.87,57.39 54.62,61.88"/>
    </edge>
    <edge id=":a_4" function="internal">
        <lane id=":a_4_0" index="0" speed="10.71" length="16.97" shape="58.10,51.60 54.66,52.25 51.46,54.21 48.50,57.47 45.77,62.03"/>
    </edge>
    <edge id=":a_5" function="internal">
        <lane id=":a_5_0" index="0" speed="3.65" length="1.28" shape="58.10,51.60 57.04,50.89"/>
    </edge>
    <edge id=":a_9" function="internal">
        <lane id=":a_9_0" index="0" speed="3.65" length="3.40" shape="57.04,50.89 56.90,50.80 56.50,50.00 56.90,49.20 58.10,48.40"/>
    </edge>
    <edge id=":a_6" function="internal">
        <lane id=":a_6_0" index="0" speed="11.74" length="20.51" shape="42.91,60.60 46.15,55.26 49.76,51.45 53.74,49.16 58.10,48.40"/>
    </edge>
    <edge id=":a_7" function="internal">
        <lane id=":a_7_0" index="0" speed="7.49" length="8.26" shape="42.91,60.60 46.49,54.99 47.91,54.24"/>
    </edge>
    <edge id=":a_8" function="internal">
        <lane id=":a_8_0" index="0" speed="3.65" length="1.44" shape="42.91,60.60 44.16,59.88"/>
    </edge>
    <edge id=":a_10" function="internal">
        <lane id=":a_10_0" index="0" speed="7.49" length="12.16" shape="47.91,54.24 49.63,53.33 52.34,55.63 54.62,61.88"/>
    </edge>
    <edge id=":a_11" function="internal">
        <lane id=":a_11_0" index="0" speed="3.65" length="3.23" shape="44.16,59.88 45.06,59.88 45.59,60.60 45.77,62.03"/>
    </edge>
    <edge id=":b_0" function="internal">
        <lane id=":b_0_0" index="0" speed="8.10" length="14.57" shape="148.40,63.60 148.05,58.35 147.00,54.60 145.25,52.35 142.80,51.60"/>
    </edge>
    <edge id=":b_1" function="internal">
        <lane id=":b_1_0" index="0" speed="9.84" length="21.99" shape="148.40,63.60 149.15,56.95 151.40,52.20 155.15,49.35 160.40,48.40"/>
    </edge>
    <edge id=":b_2" function="internal">
        <lane id=":b_2_0" index="0" speed="7.58" length="21.60" shape="148.40,63.60 149.09,56.47 151.16,53.48 154.61,54.63 159.44,59.92"/>
    </edge>
    <edge id=":b_3" function="internal">
        <lane id=":b_3_0" index="0" speed="3.65" length="4.67" shape="148.40,63.60 149.20,62.40 150.00,62.00 150.80,62.40 151.60,63.60"/>
    </edge>
    <edge id=":b_4" function="internal">
        <lane id=":b_4_0" index="0" speed="5.46" length="10.33" shape="156.88,61.84 154.57,59.31 152.92,58.76 151.93,60.19 151.60,63.60"/>
    </edge>
    <edge id=":b_5" function="internal">
        <lane id=":b_5_0" index="0" speed="12.36" length="17.95" shape="156.88,61.84 153.12,57.36 149.52,54.16 146.08,52.24 142.80,51.60"/>
    </edge>
    <edge id=":b_6" function="internal">
        <lane id=":b_6_0" index="0" speed="7.79" length="19.95" shape="156.88,61.84 153.32,55.96 152.72,51.76 155.08,49.24 160.40,48.40"/>
    </edge>
    <edge id=":b_7" function="internal">
        <lane id=":b_7_0" index="0" speed="3.65" length="4.67" shape="156.88,61.84 156.80,60.40 157.20,59.60 158.08,59.44 159.44,59.92"/>
    </edge>
    <edge id=":b_8" function="internal">
        <lane id=":b_8_0" index="0" speed="6.11" length="11.67" shape="160.40,51.60 157.64,52.12 156.56,53.68 157.16,56.28 159.44,59.92"/>
    </edge>
    <edge id=":b_9" function="internal">
        <lane id=":b_9_0" index="0" speed="8.67" length="16.85" shape="160.40,51.60 156.55,52.35 153.80,54.60 152.15,58.35 151.60,63.60"/>
    </edge>
    <edge id=":b_10" function="internal">
        <lane id=":b_10_0" index="0" speed="13.89" length="17.60" shape="160.40,51.60 142.80,51.60"/>
    </edge>
    <edge id=":b_11" function="internal">
        <lane id=":b_11_0" index="0" speed="3.65" length="1.44" shape="160.40,51.60 159.20,50.80"/>
    </edge>
    <edge id=":b_16" function="internal">
        <lane id=":b_16_0" index="0" speed="3.65" length="3.23" shape="159.20,50.80 158.80,50.00 159.20,49.20 160.40,48.40"/>
    </edge>
    <edge id=":b_12" function="internal">
        <lane id=":b_12_0" index="0" speed="13.89" length="17.60" shape="142.80,48.40 160.40,48.40"/>
    </edge>
    <edge id=":b_13" function="internal">
        <lane id=":b_13_0" index="0" speed="13.31" length="4.10" shape="142.80,48.40 146.84,49.12"/>
    </edge>
    <edge id=":b_14" function="internal">
        <lane id=":b_14_0" index="0" speed="9.32" length="3.03" shape="142.80,48.40 145.74,49.13"/>
    </edge>
    <edge id=":b_15" function="internal">
        <lane id=":b_15_0" index="0" speed="3.65" length="1.44" shape="142.80,48.40 144.00,49.20"/>
    </edge>
    <edge id=":b_17" function="internal">
        <lane id=":b_17_0" index="0" speed="13.31" length="16.80" shape="146.84,49.12 150.96,51.28 155.16,54.88 159.44,59.92"/>
    </edge>
    <edge id=":b_18" function="internal">
        <lane id=":b_18_0" index="0" speed="9.32" length="16.60" shape="145.74,49.13 146.65,49.35 149.40,52.20 151.05,56.95 151.60,63.60"/>
    </edge>
    <edge id=":b_19" function="internal">
        <lane id=":b_19_0" index="0" speed="3.65" length="3.23" shape="144.00,49.20 144.40,50.00 144.00,50.80 142.80,51.60"/>
    </edge>
    <edge id=":c_0" function="internal">
        <lane id=":c_0_0" index="0" speed="7.22" length="11.36" shape="448.40,59.98 448.05,56.31 447.00,53.69 445.25,52.12 442.80,51.60"/>
    </edge>
    <edge id=":c_1" function="internal">
        <lane id=":c_1_0" index="0" speed="12.17" length="18.85" shape="448.40,59.98 448.90,54.90 450.41,50.51 452.92,46.81 456.43,43.79"/>
    </edge>
    <edge id=":c_2" function="internal">
        <lane id=":c_2_0" index="0" speed="7.38" length="17.29" shape="448.40,59.98 449.07,54.75 451.10,52.05 454.47,51.87 459.19,54.20"/>
    </edge>
    <edge id=":c_3" function="internal">
        <lane id=":c_3_0" index="0" speed="3.65" length="4.67" shape="448.40,59.98 449.20,58.78 450.00,58.38 450.80,58.78 451.60,59.98"/>
    </edge>
    <edge id=":c_4" function="internal">
        <lane id=":c_4_0" index="0" speed="5.61" length="9.32" shape="457.42,56.87 454.87,55.61 453.05,55.71 451.96,57.16 451.60,59.98"/>
    </edge>
    <edge id=":c_5" function="internal">
        <lane id=":c_5_0" index="0" speed="13.89" length="15.73" shape="457.42,56.87 454.08,54.87 450.42,53.19 446.61,52.03 442.80,51.60"/>
    </edge>
    <edge id=":c_6" function="internal">
        <lane id=":c_6_0" index="0" speed="7.67" length="3.73" shape="457.42,56.87 454.59,54.43"/>
    </edge>
    <edge id=":c_7" function="internal">
        <lane id=":c_7_0" index="0" speed="3.65" length="1.44" shape="457.42,56.87 456.86,55.54"/>
    </edge>
    <edge id=":c_16" function="internal">
        <lane id=":c_16_0" index="0" speed="7.67" length="13.11" shape="454.59,54.43 453.49,53.47 452.02,50.16 453.00,46.93 456.43,43.79"/>
    </edge>
    <edge id=":c_17" function="internal">
        <lane id=":c_17_0" index="0" speed="3.65" length="3.23" shape="456.86,55.54 456.97,54.65 457.75,54.20 459.19,54.20"/>
    </edge>
    <edge id=":c_8" function="internal">
        <lane id=":c_8_0" index="0" speed="6.06" length="10.00" shape="458.21,46.45 456.27,48.27 455.79,50.16 456.76,52.14 459.19,54.20"/>
    </edge>
    <edge id=":c_9" function="internal">
        <lane id=":c_9_0" index="0" speed="11.14" length="15.70" shape="458.21,46.45 455.32,48.95 453.25,52.04 452.01,55.71 451.60,59.98"/>
    </edge>
    <edge id=":c_10" function="internal">
        <lane id=":c_10_0" index="0" speed="13.89" length="16.43" shape="458.21,46.45 454.75,48.42 450.82,50.07 446.73,51.19 442.80,51.60"/>
    </edge>
    <edge id=":c_11" function="internal">
        <lane id=":c_11_0" index="0" speed="3.65" length="4.67" shape="458.21,46.45 456.77,46.45 455.99,46.01 455.88,45.12 456.43,43.79"/>
    </edge>
    <edge id=":c_12" function="internal">
        <lane id=":c_12_0" index="0" speed="13.89" length="14.60" shape="442.80,48.40 446.45,48.07 449.93,47.13 453.25,45.68 456.43,43.79"/>
    </edge>
    <edge id=":c_13" function="internal">
        <lane id=":c_13_0" index="0" speed="13.89" length="17.57" shape="442.80,48.40 446.89,48.92 451.31,50.26 455.58,52.13 459.19,54.20"/>
    </edge>
    <edge id=":c_14" function="internal">
        <lane id=":c_14_0" index="0" speed="8.58" length="4.48" shape="442.80,48.40 446.65,49.12 447.09,49.47"/>
    </edge>
    <edge id=":c_15" function="internal">
        <lane id=":c_15_0" index="0" speed="3.65" length="1.44" shape="442.80,48.40 444.00,49.20"/>
    </edge>
    <edge id=":c_18" function="internal">
        <lane id=":c_18_0" index="0" speed="8.58" length="12.01" shape="447.09,49.47 449.40,51.29 451.05,54.91 451.60,59.98"/>
    </edge>
    <edge id=":c_19" function="internal">
        <lane id=":c_19_0" index="0" speed="3.65" length="3.23" shape="444.00,49.20 444.40,50.00 444.00,50.80 442.80,51.60"/>
    </edge>
    <edge id=":d_0" function="internal">
        <lane id=":d_0_0" index="0" speed="3.65" length="4.67" shape="76.60,350.00 75.80,351.20 75.00,351.60 74.20,351.20 73.40,350.00"/>
    </edge>
    <edge id=":e_0" function="internal">
        <lane id=":e_0_0" index="0" speed="13.89" length="19.24" shape="182.20,351.60 178.21,351.05 174.11,349.41 169.90,346.67 165.58,342.84"/>
    </edge>
    <edge id=":e_1" function="internal">
        <lane id=":e_1_0" index="0" speed="8.94" length="4.59" shape="182.20,351.60 178.35,350.77 177.87,350.33"/>
    </edge>
    <edge id=":e_2" function="internal">
        <lane id=":e_2_0" index="0" speed="3.65" length="1.44" shape="182.20,351.60 181.00,350.80"/>
    </edge>
    <edge id=":e_9" function="internal">
        <lane id=":e_9_0" index="0" speed="8.94" length="13.40" shape="177.87,350.33 175.60,348.27 173.95,344.10 173.40,338.27"/>
    </edge>
    <edge id=":e_10" function="internal">
        <lane id=":e_10_0" index="0" speed="3.65" length="3.23" shape="181.00,350.80 180.60,350.00 181.00,349.20 182.20,348.40"/>
    </edge>
    <edge id=":e_3" function="internal">
        <lane id=":e_3_0" index="0" speed="7.65" length="12.89" shape="176.60,338.27 176.95,342.70 178.00,345.87 179.75,347.77 182.20,348.40"/>
    </edge>
    <edge id=":e_4" function="internal">
        <lane id=":e_4_0" index="0" speed="7.42" length="19.31" shape="176.60,338.27 175.91,344.41 173.84,347.21 170.40,346.69 165.58,342.84"/>
    </edge>
    <edge id=":e_5" function="internal">
        <lane id=":e_5_0" index="0" speed="3.65" length="4.67" shape="176.60,338.27 175.80,339.47 175.00,339.87 174.20,339.47 173.40,338.27"/>
    </edge>
    <edge id=":e_6" function="internal">
        <lane id=":e_6_0" index="0" speed="5.47" length="9.74" shape="167.84,340.58 170.27,342.52 172.01,342.78 173.05,341.37 173.40,338.27"/>
    </edge>
    <edge id=":e_7" function="internal">
        <lane id=":e_7_0" index="0" speed="13.42" length="16.74" shape="167.84,340.58 171.67,344.00 175.34,346.44 178.85,347.91 182.20,348.40"/>
    </edge>
    <edge id=":e_8" function="internal">
        <lane id=":e_8_0" index="0" speed="3.65" length="1.44" shape="167.84,340.58 168.12,341.99"/>
    </edge>
    <edge id=":e_11" function="internal">
        <lane id=":e_11_0" index="0" speed="3.65" length="3.23" shape="168.12,341.99 167.84,342.84 166.99,343.12 165.58,342.84"/>
    </edge>
    <edge id=":f_0" function="internal">
        <lane id=":f_0_0" index="0" speed="13.89" length="18.20" shape="73.40,261.73 73.10,257.46 72.20,252.66 70.75,248.05 68.76,244.35"/>
    </edge>
    <edge id=":f_1" function="internal">
        <lane id=":f_1_0" index="0" speed="13.89" length="20.20" shape="73.40,261.73 73.80,257.16 74.92,251.70 76.59,246.43 78.68,242.43"/>
    </edge>
    <edge id=":f_2" function="internal">
        <lane id=":f_2_0" index="0" speed="7.42" length="19.31" shape="73.40,261.73 74.09,255.59 76.16,252.79 79.60,253.31 84.42,257.16"/>
    </edge>
    <edge id=":f_3" function="internal">
        <lane id=":f_3_0" index="0" speed="3.65" length="4.67" shape="73.40,261.73 74.20,260.53 75.00,260.13 75.80,260.53 76.60,261.73"/>
    </edge>
    <edge id=":f_4" function="internal">
        <lane id=":f_4_0" index="0" speed="5.47" length="9.74" shape="82.16,259.42 79.73,257.48 77.99,257.22 76.95,258.63 76.60,261.73"/>
    </edge>
    <edge id=":f_5" function="internal">
        <lane id=":f_5_0" index="0" speed="13.89" length="20.18" shape="82.16,259.42 79.00,256.14 75.26,252.06 71.62,247.89 68.76,244.35"/>
    </edge>
    <edge id=":f_6" function="internal">
        <lane id=":f_6_0" index="0" speed="9.72" length="6.45" shape="82.16,259.42 78.47,254.88 78.24,254.33"/>
    </edge>
    <edge id=":f_7" function="internal">
        <lane id=":f_7_0" index="0" speed="3.65" length="1.44" shape="82.16,259.42 81.88,258.01"/>
    </edge>
    <edge id=":f_16" function="internal">
        <lane id=":f_16_0" index="0" speed="9.72" length="12.68" shape="78.24,254.33 76.65,250.54 76.73,246.39 78.68,242.43"/>
    </edge>
    <edge id=":f_17" function="internal">
        <lane id=":f_17_0" index="0" speed="3.65" length="3.23" shape="81.88,258.01 82.16,257.16 83.01,256.88 84.42,257.16"/>
    </edge>
    <edge id=":f_8" function="internal">
        <lane id=":f_8_0" index="0" speed="8.53" length="14.50" shape="81.24,244.35 79.89,247.21 79.97,250.30 81.48,253.62 84.42,257.16"/>
    </edge>
    <edge id=":f_9" function="internal">
        <lane id=":f_9_0" index="0" speed="13.89" length="18.20" shape="81.24,244.35 79.25,248.05 77.80,252.66 76.90,257.46 76.60,261.73"/>
    </edge>
    <edge id=":f_10" function="internal">
        <lane id=":f_10_0" index="0" speed="7.59" length="15.40" shape="81.24,244.35 78.12,247.47 75.00,248.51 71.88,247.47 68.76,244.35"/>
    </edge>
    <edge id=":f_11" function="internal">
        <lane id=":f_11_0" index="0" speed="3.65" length="4.67" shape="81.24,244.35 79.88,244.83 79.00,244.67 78.60,243.87 78.68,242.43"/>
    </edge>
    <edge id=":f_12" function="internal">
        <lane id=":f_12_0" index="0" speed="5.98" length="9.08" shape="71.32,242.43 73.16,244.27 75.00,244.88 76.84,244.27 78.68,242.43"/>
    </edge>
    <edge id=":f_13" function="internal">
        <lane id=":f_13_0" index="0" speed="13.89" length="19.73" shape="71.32,242.43 74.14,245.92 77.67,249.97 81.31,253.93 84.42,257.16"/>
    </edge>
    <edge id=":f_14" function="internal">
        <lane id=":f_14_0" index="0" speed="13.89" length="3.65" shape="71.32,242.43 73.01,245.66"/>
    </edge>
    <edge id=":f_15" function="internal">
        <lane id=":f_15_0" index="0" speed="3.65" length="1.44" shape="71.32,242.43 71.40,243.87"/>
    </edge>
    <edge id=":f_18" function="internal">
        <lane id=":f_18_0" index="0" speed="13.89" length="16.55" shape="73.01,245.66 73.41,246.43 75.09,251.70 76.20,257.16 76.60,261.73"/>
    </edge>
    <edge id=":f_19" function="internal">
        <lane id=":f_19_0" index="0" speed="3.65" length="3.23" shape="71.40,243.87 71.00,244.67 70.12,244.83 68.76,244.35"/>
    </edge>
    <edge id=":g_0" function="internal">
        <lane id=":g_0_0" index="0" speed="12.12" length="13.58" shape="173.40,257.20 173.06,254.00 172.03,250.92 170.31,247.98 167.90,245.16"/>
    </edge>
    <edge id=":g_1" function="internal">
        <lane id=":g_1_0" index="0" speed="13.89" length="16.80" shape="173.40,257.20 173.75,253.20 174.70,248.94 176.06,244.78 177.67,241.08"/>
    </edge>
    <edge id=":g_2" function="internal">
        <lane id=":g_2_0" index="0" speed="8.42" length="4.36" shape="173.40,257.20 174.07,253.35 174.34,252.99"/>
    </edge>
    <edge id=":g_3" function="internal">
        <lane id=":g_3_0" index="0" speed="3.65" length="1.44" shape="173.40,257.20 174.20,256.00"/>
    </edge>
    <edge id=":g_16" function="internal">
        <lane id=":g_16_0" index="0" speed="8.42" length="11.46" shape="174.34,252.99 176.09,250.60 179.46,248.95 184.18,248.40"/>
    </edge>
    <edge id=":g_17" function="internal">
        <lane id=":g_17_0" index="0" speed="3.65" length="3.23" shape="174.20,256.00 175.00,255.60 175.80,256.00 176.60,257.20"/>
    </edge>
    <edge id=":g_4" function="internal">
        <lane id=":g_4_0" index="0" speed="7.02" length="10.67" shape="184.18,251.60 180.86,251.95 178.49,253.00 177.07,254.75 176.60,257.20"/>
    </edge>
    <edge id=":g_5" function="internal">
        <lane id=":g_5_0" index="0" speed="13.89" length="17.96" shape="184.18,251.60 179.47,251.20 175.19,249.99 171.33,247.98 167.90,245.16"/>
    </edge>
    <edge id=":g_6" function="internal">
        <lane id=":g_6_0" index="0" speed="7.44" length="16.40" shape="184.18,251.60 179.36,250.94 176.67,248.97 176.11,245.68 177.67,241.08"/>
    </edge>
    <edge id=":g_7" function="internal">
        <lane id=":g_7_0" index="0" speed="3.65" length="4.67" shape="184.18,251.60 182.98,250.80 182.58,250.00 182.98,249.20 184.18,248.40"/>
    </edge>
    <edge id=":g_8" function="internal">
        <lane id=":g_8_0" index="0" speed="5.74" length="9.18" shape="180.54,242.51 179.66,245.09 179.97,246.93 181.48,248.03 184.18,248.40"/>
    </edge>
    <edge id=":g_9" function="internal">
        <lane id=":g_9_0" index="0" speed="13.89" length="15.33" shape="180.54,242.51 178.98,245.99 177.73,249.66 176.90,253.42 176.60,257.20"/>
    </edge>
    <edge id=":g_10" function="internal">
        <lane id=":g_10_0" index="0" speed="7.67" length="3.87" shape="180.54,242.51 178.37,245.71"/>
    </edge>
    <edge id=":g_11" function="internal">
        <lane id=":g_11_0" index="0" speed="3.65" length="1.44" shape="180.54,242.51 179.28,243.22"/>
    </edge>
    <edge id=":g_18" function="internal">
        <lane id=":g_18_0" index="0" speed="7.67" length="12.27" shape="178.37,245.71 177.83,246.50 174.83,248.27 171.52,247.82 167.90,245.16"/>
    </edge>
    <edge id=":g_19" function="internal">
        <lane id=":g_19_0" index="0" speed="3.65" length="3.23" shape="179.28,243.22 178.39,243.22 177.85,242.51 177.67,241.08"/>
    </edge>
    <edge id=":g_12" function="internal">
        <lane id=":g_12_0" index="0" speed="6.08" length="9.65" shape="170.16,242.90 172.28,244.44 174.24,244.64 176.04,243.52 177.67,241.08"/>
    </edge>
    <edge id=":g_13" function="internal">
        <lane id=":g_13_0" index="0" speed="12.91" length="15.45" shape="170.16,242.90 173.10,245.31 176.42,247.03 180.11,248.06 184.18,248.40"/>
    </edge>
    <edge id=":g_14" function="internal">
        <lane id=":g_14_0" index="0" speed="13.17" length="16.09" shape="170.16,242.90 172.98,246.21 174.99,249.69 176.20,253.36 176.60,257.20"/>
    </edge>
    <edge id=":g_15" function="internal">
        <lane id=":g_15_0" index="0" speed="3.65" length="4.67" shape="170.16,242.90 170.45,244.32 170.16,245.16 169.32,245.45 167.90,245.16"/>
    </edge>
    <edge id=":h_0" function="internal">
        <lane id=":h_0_0" index="0" speed="5.61" length="9.32" shape="598.40,59.98 598.04,57.16 596.95,55.71 595.13,55.61 592.58,56.87"/>
    </edge>
    <edge id=":h_1" function="internal">
        <lane id=":h_1_0" index="0" speed="11.14" length="15.70" shape="598.40,59.98 597.99,55.71 596.75,52.04 594.68,48.95 591.79,46.45"/>
    </edge>
    <edge id=":h_2" function="internal">
        <lane id=":h_2_0" index="0" speed="3.65" length="1.34" shape="598.40,59.98 599.14,58.87"/>
    </edge>
    <edge id=":h_9" function="internal">
        <lane id=":h_9_0" index="0" speed="3.65" length="3.34" shape="599.14,58.87 599.20,58.78 600.00,58.38 600.80,58.78 601.60,59.98"/>
    </edge>
    <edge id=":h_3" function="internal">
        <lane id=":h_3_0" index="0" speed="12.17" length="18.85" shape="593.57,43.79 597.08,46.81 599.59,50.51 601.10,54.90 601.60,59.98"/>
    </edge>
    <edge id=":h_4" function="internal">
        <lane id=":h_4_0" index="0" speed="7.67" length="6.18" shape="593.57,43.79 597.00,46.93 597.44,48.39"/>
    </edge>
    <edge id=":h_5" function="internal">
        <lane id=":h_5_0" index="0" speed="3.65" length="1.44" shape="593.57,43.79 594.12,45.12"/>
    </edge>
    <edge id=":h_10" function="internal">
        <lane id=":h_10_0" index="0" speed="7.67" length="10.67" shape="597.44,48.39 597.98,50.16 596.51,53.47 592.58,56.87"/>
    </edge>
    <edge id=":h_11" function="internal">
        <lane id=":h_11_0" index="0" speed="3.65" length="3.23" shape="594.12,45.12 594.01,46.01 593.23,46.45 591.79,46.45"/>
    </edge>
    <edge id=":h_6" function="internal">
        <lane id=":h_6_0" index="0" speed="6.06" length="10.00" shape="590.81,54.20 593.24,52.14 594.21,50.16 593.73,48.27 591.79,46.45"/>
    </edge>
    <edge id=":h_7" function="internal">
        <lane id=":h_7_0" index="0" speed="7.38" length="17.29" shape="590.81,54.20 595.53,51.87 598.90,52.05 600.93,54.75 601.60,59.98"/>
    </edge>
    <edge id=":h_8" function="internal">
        <lane id=":h_8_0" index="0" speed="3.65" length="4.67" shape="590.81,54.20 592.25,54.20 593.03,54.65 593.14,55.54 592.58,56.87"/>
    </edge>
    <edge id=":i_0" function="internal">
        <lane id=":i_0_0" index="0" speed="13.89" length="17.57" shape="459.19,345.80 455.58,347.87 451.31,349.74 446.89,351.08 442.80,351.60"/>
    </edge>
    <edge id=":i_1" function="internal">
        <lane id=":i_1_0" index="0" speed="7.38" length="5.86" shape="459.19,345.80 454.47,348.13 453.88,348.10"/>
    </edge>
    <edge id=":i_2" function="internal">
        <lane id=":i_2_0" index="0" speed="3.65" length="1.44" shape="459.19,345.80 457.75,345.80"/>
    </edge>
    <edge id=":i_9" function="internal">
        <lane id=":i_9_0" index="0" speed="7.38" length="11.43" shape="453.88,348.10 451.10,347.95 449.07,345.25 448.40,340.02"/>
    </edge>
    <edge id=":i_10" function="internal">
        <lane id=":i_10_0" index="0" speed="3.65" length="3.23" shape="457.75,345.80 456.97,345.35 456.86,344.46 457.42,343.13"/>
    </edge>
    <edge id=":i_3" function="internal">
        <lane id=":i_3_0" index="0" speed="5.61" length="9.32" shape="451.60,340.02 451.96,342.84 453.05,344.29 454.87,344.39 457.42,343.13"/>
    </edge>
    <edge id=":i_4" function="internal">
        <lane id=":i_4_0" index="0" speed="8.58" length="16.49" shape="451.60,340.02 451.05,345.09 449.40,348.71 446.65,350.88 442.80,351.60"/>
    </edge>
    <edge id=":i_5" function="internal">
        <lane id=":i_5_0" index="0" speed="3.65" length="4.67" shape="451.60,340.02 450.80,341.22 450.00,341.62 449.20,341.22 448.40,340.02"/>
    </edge>
    <edge id=":i_6" function="internal">
        <lane id=":i_6_0" index="0" speed="7.22" length="11.36" shape="442.80,348.40 445.25,347.88 447.00,346.31 448.05,343.69 448.40,340.02"/>
    </edge>
    <edge id=":i_7" function="internal">
        <lane id=":i_7_0" index="0" speed="13.89" length="15.73" shape="442.80,348.40 446.61,347.97 450.42,346.81 454.08,345.13 457.42,343.13"/>
    </edge>
    <edge id=":i_8" function="internal">
        <lane id=":i_8_0" index="0" speed="3.65" length="1.32" shape="442.80,348.40 443.90,349.13"/>
    </edge>
    <edge id=":i_11" function="internal">
        <lane id=":i_11_0" index="0" speed="3.65" length="3.36" shape="443.90,349.13 444.00,349.20 444.40,350.00 444.00,350.80 442.80,351.60"/>
    </edge>
    <edge id=":j_0" function="internal">
        <lane id=":j_0_0" index="0" speed="13.05" length="21.75" shape="601.60,242.80 600.80,246.86 598.39,250.98 594.38,255.17 588.77,259.41"/>
    </edge>
    <edge id=":j_1" function="internal">
        <lane id=":j_1_0" index="0" speed="9.51" length="4.59" shape="601.60,242.80 600.59,246.65 600.13,247.06"/>
    </edge>
    <edge id=":j_2" function="internal">
        <lane id=":j_2_0" index="0" speed="3.65" length="1.44" shape="601.60,242.80 600.80,244.00"/>
    </edge>
    <edge id=":j_9" function="internal">
        <lane id=":j_9_0" index="0" speed="9.51" length="15.89" shape="600.13,247.06 597.56,249.40 592.51,251.05 585.43,251.60"/>
    </edge>
    <edge id=":j_10" function="internal">
        <lane id=":j_10_0" index="0" speed="3.65" length="3.23" shape="600.80,244.00 600.00,244.40 599.20,244.00 598.40,242.80"/>
    </edge>
    <edge id=":j_3" function="internal">
        <lane id=":j_3_0" index="0" speed="8.33" length="15.45" shape="585.43,248.40 591.11,248.05 595.16,247.00 597.59,245.25 598.40,242.80"/>
    </edge>
    <edge id=":j_4" function="internal">
        <lane id=":j_4_0" index="0" speed="7.69" length="22.83" shape="585.43,248.40 593.08,249.09 596.19,251.15 594.75,254.59 588.77,259.41"/>
    </edge>
    <edge id=":j_5" function="internal">
        <lane id=":j_5_0" index="0" speed="3.65" length="4.67" shape="585.43,248.40 586.63,249.20 587.03,250.00 586.63,250.80 585.43,251.60"/>
    </edge>
    <edge id=":j_6" function="internal">
        <lane id=":j_6_0" index="0" speed="5.48" length="10.68" shape="586.99,256.75 589.79,254.50 590.46,252.89 589.01,251.92 585.43,251.60"/>
    </edge>
    <edge id=":j_7" function="internal">
        <lane id=":j_7_0" index="0" speed="12.10" length="18.62" shape="586.99,256.75 591.98,253.03 595.55,249.46 597.69,246.05 598.40,242.80"/>
    </edge>
    <edge id=":j_8" function="internal">
        <lane id=":j_8_0" index="0" speed="3.65" length="1.44" shape="586.99,256.75 588.43,256.75"/>
    </edge>
    <edge id=":j_11" function="internal">
        <lane id=":j_11_0" index="0" speed="3.65" length="3.23" shape="588.43,256.75 589.21,257.19 589.32,258.08 588.77,259.41"/>
    </edge>
    <edge id=":k_0" function="internal">
        <lane id=":k_0_0" index="0" speed="6.25" length="5.33" shape="-0.09,152.54 -0.79,151.34 -1.10,150.10 -1.02,148.82 -0.55,147.52"/>
    </edge>
    <edge id=":k_1" function="internal">
        <lane id=":k_1_0" index="0" speed="4.00" length="1.78" shape="2.32,148.95 2.16,149.38 2.13,149.81 2.23,150.22 2.47,150.62"/>
    </edge>
    <edge id=":l_0" function="internal">
        <lane id=":l_0_0" index="0" speed="7.49" length="2.62" shape="74.50,151.76 73.96,151.20 73.64,150.77 73.43,150.27 73.23,149.53"/>
    </edge>
    <edge id=":l_1" function="internal">
        <lane id=":l_1_0" index="0" speed="13.89" length="0.87" shape="76.34,148.75 76.40,149.00 76.47,149.17 76.58,149.31 76.76,149.50"/>
    </edge>
    <edge id=":m_0" function="internal">
        <lane id=":m_0_0" index="0" speed="7.04" length="3.13" shape="151.60,148.93 151.58,149.85 151.46,150.49 151.17,151.06 150.64,151.81"/>
    </edge>
    <edge id=":m_1" function="internal">
        <lane id=":m_1_0" index="0" speed="4.41" length="1.04" shape="148.08,149.89 148.26,149.64 148.35,149.45 148.39,149.24 148.40,148.93"/>
    </edge>
    <edge id=":n_0" function="internal">
        <lane id=":n_0_0" index="0" speed="6.25" length="5.33" shape="225.09,147.46 225.79,148.66 226.10,149.90 226.02,151.18 225.55,152.48"/>
    </edge>
    <edge id=":n_1" function="internal">
        <lane id=":n_1_0" index="0" speed="4.00" length="1.78" shape="222.68,151.05 222.84,150.62 222.87,150.19 222.77,149.78 222.53,149.38"/>
    </edge>
    <edge id=":o_0" function="internal">
        <lane id=":o_0_0" index="0" speed="6.21" length="5.68" shape="527.66,100.15 526.33,100.81 525.00,101.04 523.67,100.81 522.34,100.15"/>
    </edge>
    <edge id=":o_1" function="internal">
        <lane id=":o_1_0" index="0" speed="3.97" length="1.89" shape="524.11,97.49 524.56,97.71 525.00,97.78 525.44,97.71 525.89,97.49"/>
    </edge>
    <edge id=":p_0" function="internal">
        <lane id=":p_0_0" index="0" speed="3.97" length="1.89" shape="525.89,2.51 525.44,2.29 525.00,2.22 524.56,2.29 524.11,2.51"/>
    </edge>
    <edge id=":p_1" function="internal">
        <lane id=":p_1_0" index="0" speed="6.21" length="5.68" shape="522.34,-0.15 523.67,-0.81 525.00,-1.04 526.33,-0.81 527.66,-0.15"/>
    </edge>

    <edge id="a_b" from="a" to="b" priority="-1" spreadType="center" shape="50.00,48.40 150.03,48.40">
        <lane id="a_b_0" index="0" speed="13.89" length="84.70" shape="58.10,48.40 142.80,48.40"/>
    </edge>
    <edge id="a_k" from="a" to="k" priority="-1">
        <lane id="a_k_0" index="0" speed="13.89" length="97.18" shape="45.77,62.03 2.32,148.95"/>
    </edge>
    <edge id="a_l" from="a" to="l" priority="-1">
        <lane id="a_l_0" index="0" speed="13.89" length="89.54" shape="54.62,61.88 76.34,148.75"/>
    </edge>
    <edge id="b_a" from="b" to="a" priority="-1" spreadType="center" shape="150.03,51.60 50.00,51.60">
        <lane id="b_a_0" index="0" speed="13.89" length="84.70" shape="142.80,51.60 58.10,51.60"/>
    </edge>
    <edge id="b_c" from="b" to="c" priority="-1">
        <lane id="b_c_0" index="0" speed="13.89" length="282.40" shape="160.40,48.40 442.80,48.40"/>
    </edge>
    <edge id="b_m" from="b" to="m" priority="-1">