<routes>
    <vType id="car" accel="2.6" decel="4.5" sigma="0.5" length="5" minGap="2.5" maxSpeed="13.89" guiShape="passenger"/>
    <route id="r1" edges="f_k k_a a_b b_c c_i i_j j_h"/>
    <route id="r2" edges="d_f f_m m_b b_n n_g g_e e_i"/>
    
    <vehicle id="veh0" type="car" route="r1" depart="0"/>
    <vehicle id="veh1" type="car" route="r2" depart="2"/>
    <vehicle id="veh2" type="car" route="r1" depart="4"/>
    <vehicle id="veh3" type="car" route="r2" depart="6"/>
    <vehicle id="veh4" type="car" route="r1" depart="8"/>
    <vehicle id="veh5" type="car" route="r2" depart="10"/>
    <vehicle id="veh6" type="car" route="r1" depart="12"/>
    <vehicle id="veh7" type="car" route="r2" depart="14"/>
    <vehicle id="veh8" type="car" route="r1" depart="16"/>
    <vehicle id="veh9" type="car" route="r2" depart="18"/>
    <vehicle id="veh10" type="car" route="r1" depart="20"/>
    <vehicle id="veh11" type="car" route="r2" depart="22"/>
    <vehicle id="veh12" type="car" route="r1" depart="24"/>
    <vehicle id="veh13" type="car" route="r2" depart="26"/>
    <vehicle id="veh14" type="car" route="r1" depart="28"/>
    <vehicle id="veh15" type="car" route="r2" depart="30"/>
    <vehicle id="veh16" type="car" route="r1" depart="32"/>
    <vehicle id="veh17" type="car" route="r2" depart="34"/>
    <vehicle id="veh18" type="car" route="r1" depart="36"/>
    <vehicle id="veh19" type="car" route="r2" depart="38"/>
    <vehicle id="veh20" type="car" route="r1" depart="40"/>
    <vehicle id="veh21" type="car" route="r2" depart="42"/>
    <vehicle id="veh22" type="car" route="r1" depart="44"/>
    <vehicle id="veh23" type="car" route="r2" depart="46"/>
    <vehicle id="veh24" type="car" route="r1" depart="48"/>
    <vehicle id="veh25" type="car" route="r2" depart="50"/>
    <vehicle id="veh26" type="car" route="r1" depart="52"/>
    <vehicle id="veh27" type="car" route="r2" depart="54"/>
    <vehicle id="veh28" type="car" route="r1" depart="56"/>
    <vehicle id="veh29" type="car" route="r2" depart="58"/>
    <vehicle id="veh30" type="car" route="r1" depart="60"/>
    <vehicle id="veh31" type="car" route="r2" depart="62"/>
    <vehicle id="veh32" type="car" route="r1" depart="64"/>
    <vehicle id="veh33" type="car" route="r2" depart="66"/>
    <vehicle id="veh34" type="car" route="r1" depart="68"/>
    <vehicle id="veh35" type="car" route="r2" depart="70"/>
    <vehicle id="veh36" type="car" route="r1" depart="72"/>
    <vehicle id="veh37" type="car" route="r2" depart="74"/>
    <vehicle id="veh38" type="car" route="r1" depart="76"/>
    <vehicle id="veh39" type="car" route="r2" depart="78"/>
    <vehicle id="veh40" type="car" route="r1" depart="80"/>
    <vehicle id="veh41" type="car" route="r2" depart="82"/>
    <vehicle id="veh42" type="car" route="r1" depart="84"/>
    <vehicle id="veh43" type="car" route="r2" depart="86"/>
    <vehicle id="veh44" type="car" route="r1" depart="88"/>
    <vehicle id="veh45" type="car" route="r2" depart="90"/>
    <vehicle id="veh46" type="car" route="r1" depart="92"/>
    <vehicle id="veh47" type="car" route="r2" depart="94"/>
    <vehicle id="veh48" type="car" route="r1" depart="96"/>
    <vehicle id="veh49" type="car" route="r2" depart="98"/>
</routes>
